Ejercicio_psat_11_05_17_mdl.m
Bus.con = [ ... 
  1  100  1.05  0  1  1;
  2  100  1  0  1  1;
  3  100  1  0  1  1;
  4  100  1  0  1  1;
 ];

Line.con = [ ... 
  1  2  100  100  60  0  0  0.08  0.4  0.02826  0  0  0  0  0  1;
  3  2  100  100  60  0  0  0.1  0.4  0.03056  0  0  0  0  0  1;
  1  3  100  100  60  0  0  0.12  0.5  0.0384  0  0  0  0  0  1;
  3  4  100  100  60  0  0  0  0.3  0  1.1  0  0  0  0  1;
 ];

SW.con = [ ... 
  1  100  100  1.05  0  1.5  -1.5  1.1  0.9  0.8  1  1  1;
 ];

PV.con = [ ... 
  4  100  100  0.5  1.1  0.8  -0.2  1.1  0.9  1  1;
 ];

PQ.con = [ ... 
  3  100  100  0.3  0.18  1.2  0.8  1  1;
  2  100  100  0.55  0.13  1.2  0.8  1  1;
 ];

Bus.names = {... 
  'Bus1'; 'Bus2'; 'Bus3'; 'Bus4'};

